
---------- Begin Simulation Statistics ----------
final_tick                                   34104000                       # Number of ticks from beginning of simulation (restored from checkpoints and never reset)
host_inst_rate                                  43002                       # Simulator instruction rate (inst/s)
host_mem_usage                                 705836                       # Number of bytes of host memory used
host_op_rate                                    48993                       # Simulator op (including micro ops) rate (op/s)
host_seconds                                     0.23                       # Real time elapsed on the host
host_tick_rate                              150949708                       # Simulator tick rate (ticks/s)
sim_freq                                 1000000000000                       # Frequency of simulated ticks
sim_insts                                        9707                       # Number of instructions simulated
sim_ops                                         11066                       # Number of ops (including micro ops) simulated
sim_seconds                                  0.000034                       # Number of seconds simulated
sim_ticks                                    34104000                       # Number of ticks simulated
system.cpu.committedInsts                        9707                       # Number of instructions committed
system.cpu.committedOps                         11066                       # Number of ops (including micro ops) committed
system.cpu.cpi                               7.026682                       # CPI: cycles per instruction
system.cpu.discardedOps                          1924                       # Number of ops (including micro ops) which were discarded before commit
system.cpu.idleCycles                           50062                       # Total number of cycles that the object has spent stopped
system.cpu.ipc                               0.142315                       # IPC: instructions per cycle
system.cpu.numCycles                            68208                       # number of cpu cycles simulated
system.cpu.numFetchSuspends                         0                       # Number of times Execute suspended instruction fetching
system.cpu.numWorkItemsCompleted                    0                       # number of work items this cpu completed
system.cpu.numWorkItemsStarted                      0                       # number of work items this cpu started
system.cpu.op_class_0::No_OpClass                   0      0.00%      0.00% # Class of committed instruction
system.cpu.op_class_0::IntAlu                    7716     69.73%     69.73% # Class of committed instruction
system.cpu.op_class_0::IntMult                     55      0.50%     70.22% # Class of committed instruction
system.cpu.op_class_0::IntDiv                       0      0.00%     70.22% # Class of committed instruction
system.cpu.op_class_0::FloatAdd                     0      0.00%     70.22% # Class of committed instruction
system.cpu.op_class_0::FloatCmp                     0      0.00%     70.22% # Class of committed instruction
system.cpu.op_class_0::FloatCvt                     0      0.00%     70.22% # Class of committed instruction
system.cpu.op_class_0::FloatMult                    0      0.00%     70.22% # Class of committed instruction
system.cpu.op_class_0::FloatMultAcc                 0      0.00%     70.22% # Class of committed instruction
system.cpu.op_class_0::FloatDiv                     0      0.00%     70.22% # Class of committed instruction
system.cpu.op_class_0::FloatMisc                    0      0.00%     70.22% # Class of committed instruction
system.cpu.op_class_0::FloatSqrt                    0      0.00%     70.22% # Class of committed instruction
system.cpu.op_class_0::SimdAdd                      0      0.00%     70.22% # Class of committed instruction
system.cpu.op_class_0::SimdAddAcc                   0      0.00%     70.22% # Class of committed instruction
system.cpu.op_class_0::SimdAlu                      0      0.00%     70.22% # Class of committed instruction
system.cpu.op_class_0::SimdCmp                      0      0.00%     70.22% # Class of committed instruction
system.cpu.op_class_0::SimdCvt                      0      0.00%     70.22% # Class of committed instruction
system.cpu.op_class_0::SimdMisc                     0      0.00%     70.22% # Class of committed instruction
system.cpu.op_class_0::SimdMult                     0      0.00%     70.22% # Class of committed instruction
system.cpu.op_class_0::SimdMultAcc                  0      0.00%     70.22% # Class of committed instruction
system.cpu.op_class_0::SimdShift                    0      0.00%     70.22% # Class of committed instruction
system.cpu.op_class_0::SimdShiftAcc                 0      0.00%     70.22% # Class of committed instruction
system.cpu.op_class_0::SimdDiv                      0      0.00%     70.22% # Class of committed instruction
system.cpu.op_class_0::SimdSqrt                     0      0.00%     70.22% # Class of committed instruction
system.cpu.op_class_0::SimdFloatAdd                 0      0.00%     70.22% # Class of committed instruction
system.cpu.op_class_0::SimdFloatAlu                 0      0.00%     70.22% # Class of committed instruction
system.cpu.op_class_0::SimdFloatCmp                 0      0.00%     70.22% # Class of committed instruction
system.cpu.op_class_0::SimdFloatCvt                 0      0.00%     70.22% # Class of committed instruction
system.cpu.op_class_0::SimdFloatDiv                 0      0.00%     70.22% # Class of committed instruction
system.cpu.op_class_0::SimdFloatMisc                0      0.00%     70.22% # Class of committed instruction
system.cpu.op_class_0::SimdFloatMult                0      0.00%     70.22% # Class of committed instruction
system.cpu.op_class_0::SimdFloatMultAcc             0      0.00%     70.22% # Class of committed instruction
system.cpu.op_class_0::SimdFloatSqrt                0      0.00%     70.22% # Class of committed instruction
system.cpu.op_class_0::SimdReduceAdd                0      0.00%     70.22% # Class of committed instruction
system.cpu.op_class_0::SimdReduceAlu                0      0.00%     70.22% # Class of committed instruction
system.cpu.op_class_0::SimdReduceCmp                0      0.00%     70.22% # Class of committed instruction
system.cpu.op_class_0::SimdFloatReduceAdd            0      0.00%     70.22% # Class of committed instruction
system.cpu.op_class_0::SimdFloatReduceCmp            0      0.00%     70.22% # Class of committed instruction
system.cpu.op_class_0::SimdAes                      0      0.00%     70.22% # Class of committed instruction
system.cpu.op_class_0::SimdAesMix                   0      0.00%     70.22% # Class of committed instruction
system.cpu.op_class_0::SimdSha1Hash                 0      0.00%     70.22% # Class of committed instruction
system.cpu.op_class_0::SimdSha1Hash2                0      0.00%     70.22% # Class of committed instruction
system.cpu.op_class_0::SimdSha256Hash               0      0.00%     70.22% # Class of committed instruction
system.cpu.op_class_0::SimdSha256Hash2              0      0.00%     70.22% # Class of committed instruction
system.cpu.op_class_0::SimdShaSigma2                0      0.00%     70.22% # Class of committed instruction
system.cpu.op_class_0::SimdShaSigma3                0      0.00%     70.22% # Class of committed instruction
system.cpu.op_class_0::SimdPredAlu                  0      0.00%     70.22% # Class of committed instruction
system.cpu.op_class_0::MemRead                   1636     14.78%     85.01% # Class of committed instruction
system.cpu.op_class_0::MemWrite                  1659     14.99%    100.00% # Class of committed instruction
system.cpu.op_class_0::FloatMemRead                 0      0.00%    100.00% # Class of committed instruction
system.cpu.op_class_0::FloatMemWrite                0      0.00%    100.00% # Class of committed instruction
system.cpu.op_class_0::IprAccess                    0      0.00%    100.00% # Class of committed instruction
system.cpu.op_class_0::InstPrefetch                 0      0.00%    100.00% # Class of committed instruction
system.cpu.op_class_0::total                    11066                       # Class of committed instruction
system.cpu.tickCycles                           18146                       # Number of cycles that the object actually ticked
system.cpu.workload.numSyscalls                    11                       # Number of system calls
system.membus.snoop_filter.hit_multi_requests            2                       # Number of requests hitting in the snoop filter with multiple (>1) holders of the requested data.
system.membus.snoop_filter.hit_multi_snoops            0                       # Number of snoops hitting in the snoop filter with multiple (>1) holders of the requested data.
system.membus.snoop_filter.hit_single_requests           87                       # Number of requests hitting in the snoop filter with a single holder of the requested data.
system.membus.snoop_filter.hit_single_snoops            0                       # Number of snoops hitting in the snoop filter with a single holder of the requested data.
system.membus.snoop_filter.tot_requests           639                       # Total number of requests made to the snoop filter.
system.membus.snoop_filter.tot_snoops               0                       # Total number of snoops made to the snoop filter.
system.clk_domain.clock                          1000                       # Clock period in ticks
system.cpu.branchPred.lookups                    3317                       # Number of BP lookups
system.cpu.branchPred.condPredicted              2171                       # Number of conditional branches predicted
system.cpu.branchPred.condIncorrect               574                       # Number of conditional branches incorrect
system.cpu.branchPred.BTBLookups                 1580                       # Number of BTB lookups
system.cpu.branchPred.BTBHits                     662                       # Number of BTB hits
system.cpu.branchPred.BTBHitPct             41.898734                       # BTB Hit Percentage
system.cpu.branchPred.RASUsed                     265                       # Number of times the RAS was used to get a target.
system.cpu.branchPred.RASIncorrect                  2                       # Number of incorrect RAS predictions.
system.cpu.branchPred.indirectLookups             173                       # Number of indirect predictor lookups.
system.cpu.branchPred.indirectHits                 29                       # Number of indirect target hits.
system.cpu.branchPred.indirectMisses              144                       # Number of indirect misses.
system.cpu.branchPred.indirectMispredicted           70                       # Number of mispredicted indirect branches.
system.cpu.dcache.demand_hits::.cpu.data         3205                       # number of demand (read+write) hits
system.cpu.dcache.demand_hits::total             3205                       # number of demand (read+write) hits
system.cpu.dcache.overall_hits::.cpu.data         3222                       # number of overall hits
system.cpu.dcache.overall_hits::total            3222                       # number of overall hits
system.cpu.dcache.demand_misses::.cpu.data          207                       # number of demand (read+write) misses
system.cpu.dcache.demand_misses::total            207                       # number of demand (read+write) misses
system.cpu.dcache.overall_misses::.cpu.data          220                       # number of overall misses
system.cpu.dcache.overall_misses::total           220                       # number of overall misses
system.cpu.dcache.demand_miss_latency::.cpu.data     12526500                       # number of demand (read+write) miss cycles
system.cpu.dcache.demand_miss_latency::total     12526500                       # number of demand (read+write) miss cycles
system.cpu.dcache.overall_miss_latency::.cpu.data     12526500                       # number of overall miss cycles
system.cpu.dcache.overall_miss_latency::total     12526500                       # number of overall miss cycles
system.cpu.dcache.demand_accesses::.cpu.data         3412                       # number of demand (read+write) accesses
system.cpu.dcache.demand_accesses::total         3412                       # number of demand (read+write) accesses
system.cpu.dcache.overall_accesses::.cpu.data         3442                       # number of overall (read+write) accesses
system.cpu.dcache.overall_accesses::total         3442                       # number of overall (read+write) accesses
system.cpu.dcache.demand_miss_rate::.cpu.data     0.060668                       # miss rate for demand accesses
system.cpu.dcache.demand_miss_rate::total     0.060668                       # miss rate for demand accesses
system.cpu.dcache.overall_miss_rate::.cpu.data     0.063916                       # miss rate for overall accesses
system.cpu.dcache.overall_miss_rate::total     0.063916                       # miss rate for overall accesses
system.cpu.dcache.demand_avg_miss_latency::.cpu.data 60514.492754                       # average overall miss latency
system.cpu.dcache.demand_avg_miss_latency::total 60514.492754                       # average overall miss latency
system.cpu.dcache.overall_avg_miss_latency::.cpu.data 56938.636364                       # average overall miss latency
system.cpu.dcache.overall_avg_miss_latency::total 56938.636364                       # average overall miss latency
system.cpu.dcache.blocked_cycles::no_mshrs            0                       # number of cycles access was blocked
system.cpu.dcache.blocked_cycles::no_targets            0                       # number of cycles access was blocked
system.cpu.dcache.blocked::no_mshrs                 0                       # number of cycles access was blocked
system.cpu.dcache.blocked::no_targets               0                       # number of cycles access was blocked
system.cpu.dcache.avg_blocked_cycles::no_mshrs          nan                       # average number of cycles each access was blocked
system.cpu.dcache.avg_blocked_cycles::no_targets          nan                       # average number of cycles each access was blocked
system.cpu.dcache.demand_mshr_hits::.cpu.data           54                       # number of demand (read+write) MSHR hits
system.cpu.dcache.demand_mshr_hits::total           54                       # number of demand (read+write) MSHR hits
system.cpu.dcache.overall_mshr_hits::.cpu.data           54                       # number of overall MSHR hits
system.cpu.dcache.overall_mshr_hits::total           54                       # number of overall MSHR hits
system.cpu.dcache.demand_mshr_misses::.cpu.data          153                       # number of demand (read+write) MSHR misses
system.cpu.dcache.demand_mshr_misses::total          153                       # number of demand (read+write) MSHR misses
system.cpu.dcache.overall_mshr_misses::.cpu.data          162                       # number of overall MSHR misses
system.cpu.dcache.overall_mshr_misses::total          162                       # number of overall MSHR misses
system.cpu.dcache.demand_mshr_miss_latency::.cpu.data      9351000                       # number of demand (read+write) MSHR miss cycles
system.cpu.dcache.demand_mshr_miss_latency::total      9351000                       # number of demand (read+write) MSHR miss cycles
system.cpu.dcache.overall_mshr_miss_latency::.cpu.data      9898000                       # number of overall MSHR miss cycles
system.cpu.dcache.overall_mshr_miss_latency::total      9898000                       # number of overall MSHR miss cycles
system.cpu.dcache.demand_mshr_miss_rate::.cpu.data     0.044842                       # mshr miss rate for demand accesses
system.cpu.dcache.demand_mshr_miss_rate::total     0.044842                       # mshr miss rate for demand accesses
system.cpu.dcache.overall_mshr_miss_rate::.cpu.data     0.047066                       # mshr miss rate for overall accesses
system.cpu.dcache.overall_mshr_miss_rate::total     0.047066                       # mshr miss rate for overall accesses
system.cpu.dcache.demand_avg_mshr_miss_latency::.cpu.data 61117.647059                       # average overall mshr miss latency
system.cpu.dcache.demand_avg_mshr_miss_latency::total 61117.647059                       # average overall mshr miss latency
system.cpu.dcache.overall_avg_mshr_miss_latency::.cpu.data 61098.765432                       # average overall mshr miss latency
system.cpu.dcache.overall_avg_mshr_miss_latency::total 61098.765432                       # average overall mshr miss latency
system.cpu.dcache.replacements                      0                       # number of replacements
system.cpu.dcache.ReadReq_hits::.cpu.data         1722                       # number of ReadReq hits
system.cpu.dcache.ReadReq_hits::total            1722                       # number of ReadReq hits
system.cpu.dcache.ReadReq_misses::.cpu.data           89                       # number of ReadReq misses
system.cpu.dcache.ReadReq_misses::total            89                       # number of ReadReq misses
system.cpu.dcache.ReadReq_miss_latency::.cpu.data      5803500                       # number of ReadReq miss cycles
system.cpu.dcache.ReadReq_miss_latency::total      5803500                       # number of ReadReq miss cycles
system.cpu.dcache.ReadReq_accesses::.cpu.data         1811                       # number of ReadReq accesses(hits+misses)
system.cpu.dcache.ReadReq_accesses::total         1811                       # number of ReadReq accesses(hits+misses)
system.cpu.dcache.ReadReq_miss_rate::.cpu.data     0.049144                       # miss rate for ReadReq accesses
system.cpu.dcache.ReadReq_miss_rate::total     0.049144                       # miss rate for ReadReq accesses
system.cpu.dcache.ReadReq_avg_miss_latency::.cpu.data 65207.865169                       # average ReadReq miss latency
system.cpu.dcache.ReadReq_avg_miss_latency::total 65207.865169                       # average ReadReq miss latency
system.cpu.dcache.ReadReq_mshr_hits::.cpu.data            6                       # number of ReadReq MSHR hits
system.cpu.dcache.ReadReq_mshr_hits::total            6                       # number of ReadReq MSHR hits
system.cpu.dcache.ReadReq_mshr_misses::.cpu.data           83                       # number of ReadReq MSHR misses
system.cpu.dcache.ReadReq_mshr_misses::total           83                       # number of ReadReq MSHR misses
system.cpu.dcache.ReadReq_mshr_miss_latency::.cpu.data      5396500                       # number of ReadReq MSHR miss cycles
system.cpu.dcache.ReadReq_mshr_miss_latency::total      5396500                       # number of ReadReq MSHR miss cycles
system.cpu.dcache.ReadReq_mshr_miss_rate::.cpu.data     0.045831                       # mshr miss rate for ReadReq accesses
system.cpu.dcache.ReadReq_mshr_miss_rate::total     0.045831                       # mshr miss rate for ReadReq accesses
system.cpu.dcache.ReadReq_avg_mshr_miss_latency::.cpu.data 65018.072289                       # average ReadReq mshr miss latency
system.cpu.dcache.ReadReq_avg_mshr_miss_latency::total 65018.072289                       # average ReadReq mshr miss latency
system.cpu.dcache.WriteReq_hits::.cpu.data         1483                       # number of WriteReq hits
system.cpu.dcache.WriteReq_hits::total           1483                       # number of WriteReq hits
system.cpu.dcache.WriteReq_misses::.cpu.data          118                       # number of WriteReq misses
system.cpu.dcache.WriteReq_misses::total          118                       # number of WriteReq misses
system.cpu.dcache.WriteReq_miss_latency::.cpu.data      6723000                       # number of WriteReq miss cycles
system.cpu.dcache.WriteReq_miss_latency::total      6723000                       # number of WriteReq miss cycles
system.cpu.dcache.WriteReq_accesses::.cpu.data         1601                       # number of WriteReq accesses(hits+misses)
system.cpu.dcache.WriteReq_accesses::total         1601                       # number of WriteReq accesses(hits+misses)
system.cpu.dcache.WriteReq_miss_rate::.cpu.data     0.073704                       # miss rate for WriteReq accesses
system.cpu.dcache.WriteReq_miss_rate::total     0.073704                       # miss rate for WriteReq accesses
system.cpu.dcache.WriteReq_avg_miss_latency::.cpu.data 56974.576271                       # average WriteReq miss latency
system.cpu.dcache.WriteReq_avg_miss_latency::total 56974.576271                       # average WriteReq miss latency
system.cpu.dcache.WriteReq_mshr_hits::.cpu.data           48                       # number of WriteReq MSHR hits
system.cpu.dcache.WriteReq_mshr_hits::total           48                       # number of WriteReq MSHR hits
system.cpu.dcache.WriteReq_mshr_misses::.cpu.data           70                       # number of WriteReq MSHR misses
system.cpu.dcache.WriteReq_mshr_misses::total           70                       # number of WriteReq MSHR misses
system.cpu.dcache.WriteReq_mshr_miss_latency::.cpu.data      3954500                       # number of WriteReq MSHR miss cycles
system.cpu.dcache.WriteReq_mshr_miss_latency::total      3954500                       # number of WriteReq MSHR miss cycles
system.cpu.dcache.WriteReq_mshr_miss_rate::.cpu.data     0.043723                       # mshr miss rate for WriteReq accesses
system.cpu.dcache.WriteReq_mshr_miss_rate::total     0.043723                       # mshr miss rate for WriteReq accesses
system.cpu.dcache.WriteReq_avg_mshr_miss_latency::.cpu.data 56492.857143                       # average WriteReq mshr miss latency
system.cpu.dcache.WriteReq_avg_mshr_miss_latency::total 56492.857143                       # average WriteReq mshr miss latency
system.cpu.dcache.SoftPFReq_hits::.cpu.data           17                       # number of SoftPFReq hits
system.cpu.dcache.SoftPFReq_hits::total            17                       # number of SoftPFReq hits
system.cpu.dcache.SoftPFReq_misses::.cpu.data           13                       # number of SoftPFReq misses
system.cpu.dcache.SoftPFReq_misses::total           13                       # number of SoftPFReq misses
system.cpu.dcache.SoftPFReq_accesses::.cpu.data           30                       # number of SoftPFReq accesses(hits+misses)
system.cpu.dcache.SoftPFReq_accesses::total           30                       # number of SoftPFReq accesses(hits+misses)
system.cpu.dcache.SoftPFReq_miss_rate::.cpu.data     0.433333                       # miss rate for SoftPFReq accesses
system.cpu.dcache.SoftPFReq_miss_rate::total     0.433333                       # miss rate for SoftPFReq accesses
system.cpu.dcache.SoftPFReq_mshr_misses::.cpu.data            9                       # number of SoftPFReq MSHR misses
system.cpu.dcache.SoftPFReq_mshr_misses::total            9                       # number of SoftPFReq MSHR misses
system.cpu.dcache.SoftPFReq_mshr_miss_latency::.cpu.data       547000                       # number of SoftPFReq MSHR miss cycles
system.cpu.dcache.SoftPFReq_mshr_miss_latency::total       547000                       # number of SoftPFReq MSHR miss cycles
system.cpu.dcache.SoftPFReq_mshr_miss_rate::.cpu.data     0.300000                       # mshr miss rate for SoftPFReq accesses
system.cpu.dcache.SoftPFReq_mshr_miss_rate::total     0.300000                       # mshr miss rate for SoftPFReq accesses
system.cpu.dcache.SoftPFReq_avg_mshr_miss_latency::.cpu.data 60777.777778                       # average SoftPFReq mshr miss latency
system.cpu.dcache.SoftPFReq_avg_mshr_miss_latency::total 60777.777778                       # average SoftPFReq mshr miss latency
system.cpu.dcache.LoadLockedReq_hits::.cpu.data           16                       # number of LoadLockedReq hits
system.cpu.dcache.LoadLockedReq_hits::total           16                       # number of LoadLockedReq hits
system.cpu.dcache.LoadLockedReq_misses::.cpu.data            2                       # number of LoadLockedReq misses
system.cpu.dcache.LoadLockedReq_misses::total            2                       # number of LoadLockedReq misses
system.cpu.dcache.LoadLockedReq_miss_latency::.cpu.data       123000                       # number of LoadLockedReq miss cycles
system.cpu.dcache.LoadLockedReq_miss_latency::total       123000                       # number of LoadLockedReq miss cycles
system.cpu.dcache.LoadLockedReq_accesses::.cpu.data           18                       # number of LoadLockedReq accesses(hits+misses)
system.cpu.dcache.LoadLockedReq_accesses::total           18                       # number of LoadLockedReq accesses(hits+misses)
system.cpu.dcache.LoadLockedReq_miss_rate::.cpu.data     0.111111                       # miss rate for LoadLockedReq accesses
system.cpu.dcache.LoadLockedReq_miss_rate::total     0.111111                       # miss rate for LoadLockedReq accesses
system.cpu.dcache.LoadLockedReq_avg_miss_latency::.cpu.data        61500                       # average LoadLockedReq miss latency
system.cpu.dcache.LoadLockedReq_avg_miss_latency::total        61500                       # average LoadLockedReq miss latency
system.cpu.dcache.LoadLockedReq_mshr_misses::.cpu.data            2                       # number of LoadLockedReq MSHR misses
system.cpu.dcache.LoadLockedReq_mshr_misses::total            2                       # number of LoadLockedReq MSHR misses
system.cpu.dcache.LoadLockedReq_mshr_miss_latency::.cpu.data       121000                       # number of LoadLockedReq MSHR miss cycles
system.cpu.dcache.LoadLockedReq_mshr_miss_latency::total       121000                       # number of LoadLockedReq MSHR miss cycles
system.cpu.dcache.LoadLockedReq_mshr_miss_rate::.cpu.data     0.111111                       # mshr miss rate for LoadLockedReq accesses
system.cpu.dcache.LoadLockedReq_mshr_miss_rate::total     0.111111                       # mshr miss rate for LoadLockedReq accesses
system.cpu.dcache.LoadLockedReq_avg_mshr_miss_latency::.cpu.data        60500                       # average LoadLockedReq mshr miss latency
system.cpu.dcache.LoadLockedReq_avg_mshr_miss_latency::total        60500                       # average LoadLockedReq mshr miss latency
system.cpu.dcache.StoreCondReq_hits::.cpu.data           18                       # number of StoreCondReq hits
system.cpu.dcache.StoreCondReq_hits::total           18                       # number of StoreCondReq hits
system.cpu.dcache.StoreCondReq_accesses::.cpu.data           18                       # number of StoreCondReq accesses(hits+misses)
system.cpu.dcache.StoreCondReq_accesses::total           18                       # number of StoreCondReq accesses(hits+misses)
system.cpu.dcache.power_state.pwrStateResidencyTicks::UNDEFINED     34104000                       # Cumulative time (in ticks) in various power states
system.cpu.dcache.tags.tagsinuse            97.012141                       # Cycle average of tags in use
system.cpu.dcache.tags.total_refs                3420                       # Total number of references to valid blocks.
system.cpu.dcache.tags.sampled_refs               164                       # Sample count of references to valid blocks.
system.cpu.dcache.tags.avg_refs             20.853659                       # Average number of references to valid blocks.
system.cpu.dcache.tags.warmup_cycle            145000                       # Cycle when the warmup percentage was hit.
system.cpu.dcache.tags.occ_blocks::.cpu.data    97.012141                       # Average occupied blocks per requestor
system.cpu.dcache.tags.occ_percent::.cpu.data     0.094738                       # Average percentage of cache occupancy
system.cpu.dcache.tags.occ_percent::total     0.094738                       # Average percentage of cache occupancy
system.cpu.dcache.tags.occ_task_id_blocks::1024          164                       # Occupied blocks per task id
system.cpu.dcache.tags.age_task_id_blocks_1024::0           24                       # Occupied blocks per task id
system.cpu.dcache.tags.age_task_id_blocks_1024::1          140                       # Occupied blocks per task id
system.cpu.dcache.tags.occ_task_id_percent::1024     0.160156                       # Percentage of cache occupancy per task id
system.cpu.dcache.tags.tag_accesses              7120                       # Number of tag accesses
system.cpu.dcache.tags.data_accesses             7120                       # Number of data accesses
system.cpu.dcache.tags.power_state.pwrStateResidencyTicks::UNDEFINED     34104000                       # Cumulative time (in ticks) in various power states
system.cpu.dtb.instHits                             0                       # ITB inst hits
system.cpu.dtb.instMisses                           0                       # ITB inst misses
system.cpu.dtb.readHits                             0                       # DTB read hits
system.cpu.dtb.readMisses                           0                       # DTB read misses
system.cpu.dtb.writeHits                            0                       # DTB write hits
system.cpu.dtb.writeMisses                          0                       # DTB write misses
system.cpu.dtb.inserts                              0                       # Number of times an entry is inserted into the TLB
system.cpu.dtb.flushTlb                             0                       # Number of times complete TLB was flushed
system.cpu.dtb.flushTlbMva                          0                       # Number of times TLB was flushed by MVA
system.cpu.dtb.flushTlbMvaAsid                      0                       # Number of times TLB was flushed by MVA & ASID
system.cpu.dtb.flushTlbAsid                         0                       # Number of times TLB was flushed by ASID
system.cpu.dtb.flushedEntries                       0                       # Number of entries that have been flushed from TLB
system.cpu.dtb.alignFaults                          0                       # Number of TLB faults due to alignment restrictions
system.cpu.dtb.prefetchFaults                       0                       # Number of TLB faults due to prefetch
system.cpu.dtb.domainFaults                         0                       # Number of TLB faults due to domain restrictions
system.cpu.dtb.permsFaults                          0                       # Number of TLB faults due to permissions restrictions
system.cpu.dtb.readAccesses                         0                       # DTB read accesses
system.cpu.dtb.writeAccesses                        0                       # DTB write accesses
system.cpu.dtb.instAccesses                         0                       # ITB inst accesses
system.cpu.dtb.hits                                 0                       # Total TLB (inst and data) hits
system.cpu.dtb.misses                               0                       # Total TLB (inst and data) misses
system.cpu.dtb.accesses                             0                       # Total TLB (inst and data) accesses
system.cpu.dtb.stage2_mmu.stage2_tlb.instHits            0                       # ITB inst hits
system.cpu.dtb.stage2_mmu.stage2_tlb.instMisses            0                       # ITB inst misses
system.cpu.dtb.stage2_mmu.stage2_tlb.readHits            0                       # DTB read hits
system.cpu.dtb.stage2_mmu.stage2_tlb.readMisses            0                       # DTB read misses
system.cpu.dtb.stage2_mmu.stage2_tlb.writeHits            0                       # DTB write hits
system.cpu.dtb.stage2_mmu.stage2_tlb.writeMisses            0                       # DTB write misses
system.cpu.dtb.stage2_mmu.stage2_tlb.inserts            0                       # Number of times an entry is inserted into the TLB
system.cpu.dtb.stage2_mmu.stage2_tlb.flushTlb            0                       # Number of times complete TLB was flushed
system.cpu.dtb.stage2_mmu.stage2_tlb.flushTlbMva            0                       # Number of times TLB was flushed by MVA
system.cpu.dtb.stage2_mmu.stage2_tlb.flushTlbMvaAsid            0                       # Number of times TLB was flushed by MVA & ASID
system.cpu.dtb.stage2_mmu.stage2_tlb.flushTlbAsid            0                       # Number of times TLB was flushed by ASID
system.cpu.dtb.stage2_mmu.stage2_tlb.flushedEntries            0                       # Number of entries that have been flushed from TLB
system.cpu.dtb.stage2_mmu.stage2_tlb.alignFaults            0                       # Number of TLB faults due to alignment restrictions
system.cpu.dtb.stage2_mmu.stage2_tlb.prefetchFaults            0                       # Number of TLB faults due to prefetch
system.cpu.dtb.stage2_mmu.stage2_tlb.domainFaults            0                       # Number of TLB faults due to domain restrictions
system.cpu.dtb.stage2_mmu.stage2_tlb.permsFaults            0                       # Number of TLB faults due to permissions restrictions
system.cpu.dtb.stage2_mmu.stage2_tlb.readAccesses            0                       # DTB read accesses
system.cpu.dtb.stage2_mmu.stage2_tlb.writeAccesses            0                       # DTB write accesses
system.cpu.dtb.stage2_mmu.stage2_tlb.instAccesses            0                       # ITB inst accesses
system.cpu.dtb.stage2_mmu.stage2_tlb.hits            0                       # Total TLB (inst and data) hits
system.cpu.dtb.stage2_mmu.stage2_tlb.misses            0                       # Total TLB (inst and data) misses
system.cpu.dtb.stage2_mmu.stage2_tlb.accesses            0                       # Total TLB (inst and data) accesses
system.cpu.dtb.stage2_mmu.stage2_tlb.walker.walks            0                       # Table walker walks requested
system.cpu.dtb.stage2_mmu.stage2_tlb.walker.requestOrigin_Requested::Data            0                       # Table walker requests started/completed, data/inst
system.cpu.dtb.stage2_mmu.stage2_tlb.walker.requestOrigin_Requested::Inst            0                       # Table walker requests started/completed, data/inst
system.cpu.dtb.stage2_mmu.stage2_tlb.walker.requestOrigin_Requested::total            0                       # Table walker requests started/completed, data/inst
system.cpu.dtb.stage2_mmu.stage2_tlb.walker.requestOrigin_Completed::Data            0                       # Table walker requests started/completed, data/inst
system.cpu.dtb.stage2_mmu.stage2_tlb.walker.requestOrigin_Completed::Inst            0                       # Table walker requests started/completed, data/inst
system.cpu.dtb.stage2_mmu.stage2_tlb.walker.requestOrigin_Completed::total            0                       # Table walker requests started/completed, data/inst
system.cpu.dtb.stage2_mmu.stage2_tlb.walker.requestOrigin::total            0                       # Table walker requests started/completed, data/inst
system.cpu.dtb.stage2_mmu.stage2_tlb.walker.power_state.pwrStateResidencyTicks::UNDEFINED     34104000                       # Cumulative time (in ticks) in various power states
system.cpu.dtb.walker.walks                         0                       # Table walker walks requested
system.cpu.dtb.walker.requestOrigin_Requested::Data            0                       # Table walker requests started/completed, data/inst
system.cpu.dtb.walker.requestOrigin_Requested::Inst            0                       # Table walker requests started/completed, data/inst
system.cpu.dtb.walker.requestOrigin_Requested::total            0                       # Table walker requests started/completed, data/inst
system.cpu.dtb.walker.requestOrigin_Completed::Data            0                       # Table walker requests started/completed, data/inst
system.cpu.dtb.walker.requestOrigin_Completed::Inst            0                       # Table walker requests started/completed, data/inst
system.cpu.dtb.walker.requestOrigin_Completed::total            0                       # Table walker requests started/completed, data/inst
system.cpu.dtb.walker.requestOrigin::total            0                       # Table walker requests started/completed, data/inst
system.cpu.dtb.walker.power_state.pwrStateResidencyTicks::UNDEFINED     34104000                       # Cumulative time (in ticks) in various power states
system.cpu.fetch2.intInstructions                9886                       # Number of integer instructions successfully decoded
system.cpu.fetch2.fpInstructions                    0                       # Number of floating point instructions successfully decoded
system.cpu.fetch2.vecInstructions                   0                       # Number of SIMD instructions successfully decoded
system.cpu.fetch2.loadInstructions               2288                       # Number of memory load instructions successfully decoded
system.cpu.fetch2.storeInstructions              1331                       # Number of memory store instructions successfully decoded
system.cpu.fetch2.amoInstructions                   0                       # Number of memory atomic instructions successfully decoded
system.cpu.icache.demand_hits::.cpu.inst         3380                       # number of demand (read+write) hits
system.cpu.icache.demand_hits::total             3380                       # number of demand (read+write) hits
system.cpu.icache.overall_hits::.cpu.inst         3380                       # number of overall hits
system.cpu.icache.overall_hits::total            3380                       # number of overall hits
system.cpu.icache.demand_misses::.cpu.inst          406                       # number of demand (read+write) misses
system.cpu.icache.demand_misses::total            406                       # number of demand (read+write) misses
system.cpu.icache.overall_misses::.cpu.inst          406                       # number of overall misses
system.cpu.icache.overall_misses::total           406                       # number of overall misses
system.cpu.icache.demand_miss_latency::.cpu.inst     23205500                       # number of demand (read+write) miss cycles
system.cpu.icache.demand_miss_latency::total     23205500                       # number of demand (read+write) miss cycles
system.cpu.icache.overall_miss_latency::.cpu.inst     23205500                       # number of overall miss cycles
system.cpu.icache.overall_miss_latency::total     23205500                       # number of overall miss cycles
system.cpu.icache.demand_accesses::.cpu.inst         3786                       # number of demand (read+write) accesses
system.cpu.icache.demand_accesses::total         3786                       # number of demand (read+write) accesses
system.cpu.icache.overall_accesses::.cpu.inst         3786                       # number of overall (read+write) accesses
system.cpu.icache.overall_accesses::total         3786                       # number of overall (read+write) accesses
system.cpu.icache.demand_miss_rate::.cpu.inst     0.107237                       # miss rate for demand accesses
system.cpu.icache.demand_miss_rate::total     0.107237                       # miss rate for demand accesses
system.cpu.icache.overall_miss_rate::.cpu.inst     0.107237                       # miss rate for overall accesses
system.cpu.icache.overall_miss_rate::total     0.107237                       # miss rate for overall accesses
system.cpu.icache.demand_avg_miss_latency::.cpu.inst 57156.403941                       # average overall miss latency
system.cpu.icache.demand_avg_miss_latency::total 57156.403941                       # average overall miss latency
system.cpu.icache.overall_avg_miss_latency::.cpu.inst 57156.403941                       # average overall miss latency
system.cpu.icache.overall_avg_miss_latency::total 57156.403941                       # average overall miss latency
system.cpu.icache.blocked_cycles::no_mshrs            0                       # number of cycles access was blocked
system.cpu.icache.blocked_cycles::no_targets            0                       # number of cycles access was blocked
system.cpu.icache.blocked::no_mshrs                 0                       # number of cycles access was blocked
system.cpu.icache.blocked::no_targets               0                       # number of cycles access was blocked
system.cpu.icache.avg_blocked_cycles::no_mshrs          nan                       # average number of cycles each access was blocked
system.cpu.icache.avg_blocked_cycles::no_targets          nan                       # average number of cycles each access was blocked
system.cpu.icache.writebacks::.writebacks           69                       # number of writebacks
system.cpu.icache.writebacks::total                69                       # number of writebacks
system.cpu.icache.demand_mshr_misses::.cpu.inst          406                       # number of demand (read+write) MSHR misses
system.cpu.icache.demand_mshr_misses::total          406                       # number of demand (read+write) MSHR misses
system.cpu.icache.overall_mshr_misses::.cpu.inst          406                       # number of overall MSHR misses
system.cpu.icache.overall_mshr_misses::total          406                       # number of overall MSHR misses
system.cpu.icache.demand_mshr_miss_latency::.cpu.inst     22799500                       # number of demand (read+write) MSHR miss cycles
system.cpu.icache.demand_mshr_miss_latency::total     22799500                       # number of demand (read+write) MSHR miss cycles
system.cpu.icache.overall_mshr_miss_latency::.cpu.inst     22799500                       # number of overall MSHR miss cycles
system.cpu.icache.overall_mshr_miss_latency::total     22799500                       # number of overall MSHR miss cycles
system.cpu.icache.demand_mshr_miss_rate::.cpu.inst     0.107237                       # mshr miss rate for demand accesses
system.cpu.icache.demand_mshr_miss_rate::total     0.107237                       # mshr miss rate for demand accesses
system.cpu.icache.overall_mshr_miss_rate::.cpu.inst     0.107237                       # mshr miss rate for overall accesses
system.cpu.icache.overall_mshr_miss_rate::total     0.107237                       # mshr miss rate for overall accesses
system.cpu.icache.demand_avg_mshr_miss_latency::.cpu.inst 56156.403941                       # average overall mshr miss latency
system.cpu.icache.demand_avg_mshr_miss_latency::total 56156.403941                       # average overall mshr miss latency
system.cpu.icache.overall_avg_mshr_miss_latency::.cpu.inst 56156.403941                       # average overall mshr miss latency
system.cpu.icache.overall_avg_mshr_miss_latency::total 56156.403941                       # average overall mshr miss latency
system.cpu.icache.replacements                     69                       # number of replacements
system.cpu.icache.ReadReq_hits::.cpu.inst         3380                       # number of ReadReq hits
system.cpu.icache.ReadReq_hits::total            3380                       # number of ReadReq hits
system.cpu.icache.ReadReq_misses::.cpu.inst          406                       # number of ReadReq misses
system.cpu.icache.ReadReq_misses::total           406                       # number of ReadReq misses
system.cpu.icache.ReadReq_miss_latency::.cpu.inst     23205500                       # number of ReadReq miss cycles
system.cpu.icache.ReadReq_miss_latency::total     23205500                       # number of ReadReq miss cycles
system.cpu.icache.ReadReq_accesses::.cpu.inst         3786                       # number of ReadReq accesses(hits+misses)
system.cpu.icache.ReadReq_accesses::total         3786                       # number of ReadReq accesses(hits+misses)
system.cpu.icache.ReadReq_miss_rate::.cpu.inst     0.107237                       # miss rate for ReadReq accesses
system.cpu.icache.ReadReq_miss_rate::total     0.107237                       # miss rate for ReadReq accesses
system.cpu.icache.ReadReq_avg_miss_latency::.cpu.inst 57156.403941                       # average ReadReq miss latency
system.cpu.icache.ReadReq_avg_miss_latency::total 57156.403941                       # average ReadReq miss latency
system.cpu.icache.ReadReq_mshr_misses::.cpu.inst          406                       # number of ReadReq MSHR misses
system.cpu.icache.ReadReq_mshr_misses::total          406                       # number of ReadReq MSHR misses
system.cpu.icache.ReadReq_mshr_miss_latency::.cpu.inst     22799500                       # number of ReadReq MSHR miss cycles
system.cpu.icache.ReadReq_mshr_miss_latency::total     22799500                       # number of ReadReq MSHR miss cycles
system.cpu.icache.ReadReq_mshr_miss_rate::.cpu.inst     0.107237                       # mshr miss rate for ReadReq accesses
system.cpu.icache.ReadReq_mshr_miss_rate::total     0.107237                       # mshr miss rate for ReadReq accesses
system.cpu.icache.ReadReq_avg_mshr_miss_latency::.cpu.inst 56156.403941                       # average ReadReq mshr miss latency
system.cpu.icache.ReadReq_avg_mshr_miss_latency::total 56156.403941                       # average ReadReq mshr miss latency
system.cpu.icache.power_state.pwrStateResidencyTicks::UNDEFINED     34104000                       # Cumulative time (in ticks) in various power states
system.cpu.icache.tags.tagsinuse           185.489654                       # Cycle average of tags in use
system.cpu.icache.tags.total_refs                3786                       # Total number of references to valid blocks.
system.cpu.icache.tags.sampled_refs               406                       # Sample count of references to valid blocks.
system.cpu.icache.tags.avg_refs              9.325123                       # Average number of references to valid blocks.
system.cpu.icache.tags.warmup_cycle             77000                       # Cycle when the warmup percentage was hit.
system.cpu.icache.tags.occ_blocks::.cpu.inst   185.489654                       # Average occupied blocks per requestor
system.cpu.icache.tags.occ_percent::.cpu.inst     0.362284                       # Average percentage of cache occupancy
system.cpu.icache.tags.occ_percent::total     0.362284                       # Average percentage of cache occupancy
system.cpu.icache.tags.occ_task_id_blocks::1024          337                       # Occupied blocks per task id
system.cpu.icache.tags.age_task_id_blocks_1024::0          125                       # Occupied blocks per task id
system.cpu.icache.tags.age_task_id_blocks_1024::1          212                       # Occupied blocks per task id
system.cpu.icache.tags.occ_task_id_percent::1024     0.658203                       # Percentage of cache occupancy per task id
system.cpu.icache.tags.tag_accesses              7978                       # Number of tag accesses
system.cpu.icache.tags.data_accesses             7978                       # Number of data accesses
system.cpu.icache.tags.power_state.pwrStateResidencyTicks::UNDEFINED     34104000                       # Cumulative time (in ticks) in various power states
system.cpu.itb.instHits                             0                       # ITB inst hits
system.cpu.itb.instMisses                           0                       # ITB inst misses
system.cpu.itb.readHits                             0                       # DTB read hits
system.cpu.itb.readMisses                           0                       # DTB read misses
system.cpu.itb.writeHits                            0                       # DTB write hits
system.cpu.itb.writeMisses                          0                       # DTB write misses
system.cpu.itb.inserts                              0                       # Number of times an entry is inserted into the TLB
system.cpu.itb.flushTlb                             0                       # Number of times complete TLB was flushed
system.cpu.itb.flushTlbMva                          0                       # Number of times TLB was flushed by MVA
system.cpu.itb.flushTlbMvaAsid                      0                       # Number of times TLB was flushed by MVA & ASID
system.cpu.itb.flushTlbAsid                         0                       # Number of times TLB was flushed by ASID
system.cpu.itb.flushedEntries                       0                       # Number of entries that have been flushed from TLB
system.cpu.itb.alignFaults                          0                       # Number of TLB faults due to alignment restrictions
system.cpu.itb.prefetchFaults                       0                       # Number of TLB faults due to prefetch
system.cpu.itb.domainFaults                         0                       # Number of TLB faults due to domain restrictions
system.cpu.itb.permsFaults                          0                       # Number of TLB faults due to permissions restrictions
system.cpu.itb.readAccesses                         0                       # DTB read accesses
system.cpu.itb.writeAccesses                        0                       # DTB write accesses
system.cpu.itb.instAccesses                         0                       # ITB inst accesses
system.cpu.itb.hits                                 0                       # Total TLB (inst and data) hits
system.cpu.itb.misses                               0                       # Total TLB (inst and data) misses
system.cpu.itb.accesses                             0                       # Total TLB (inst and data) accesses
system.cpu.itb.stage2_mmu.stage2_tlb.instHits            0                       # ITB inst hits
system.cpu.itb.stage2_mmu.stage2_tlb.instMisses            0                       # ITB inst misses
system.cpu.itb.stage2_mmu.stage2_tlb.readHits            0                       # DTB read hits
system.cpu.itb.stage2_mmu.stage2_tlb.readMisses            0                       # DTB read misses
system.cpu.itb.stage2_mmu.stage2_tlb.writeHits            0                       # DTB write hits
system.cpu.itb.stage2_mmu.stage2_tlb.writeMisses            0                       # DTB write misses
system.cpu.itb.stage2_mmu.stage2_tlb.inserts            0                       # Number of times an entry is inserted into the TLB
system.cpu.itb.stage2_mmu.stage2_tlb.flushTlb            0                       # Number of times complete TLB was flushed
system.cpu.itb.stage2_mmu.stage2_tlb.flushTlbMva            0                       # Number of times TLB was flushed by MVA
system.cpu.itb.stage2_mmu.stage2_tlb.flushTlbMvaAsid            0                       # Number of times TLB was flushed by MVA & ASID
system.cpu.itb.stage2_mmu.stage2_tlb.flushTlbAsid            0                       # Number of times TLB was flushed by ASID
system.cpu.itb.stage2_mmu.stage2_tlb.flushedEntries            0                       # Number of entries that have been flushed from TLB
system.cpu.itb.stage2_mmu.stage2_tlb.alignFaults            0                       # Number of TLB faults due to alignment restrictions
system.cpu.itb.stage2_mmu.stage2_tlb.prefetchFaults            0                       # Number of TLB faults due to prefetch
system.cpu.itb.stage2_mmu.stage2_tlb.domainFaults            0                       # Number of TLB faults due to domain restrictions
system.cpu.itb.stage2_mmu.stage2_tlb.permsFaults            0                       # Number of TLB faults due to permissions restrictions
system.cpu.itb.stage2_mmu.stage2_tlb.readAccesses            0                       # DTB read accesses
system.cpu.itb.stage2_mmu.stage2_tlb.writeAccesses            0                       # DTB write accesses
system.cpu.itb.stage2_mmu.stage2_tlb.instAccesses            0                       # ITB inst accesses
system.cpu.itb.stage2_mmu.stage2_tlb.hits            0                       # Total TLB (inst and data) hits
system.cpu.itb.stage2_mmu.stage2_tlb.misses            0                       # Total TLB (inst and data) misses
system.cpu.itb.stage2_mmu.stage2_tlb.accesses            0                       # Total TLB (inst and data) accesses
system.cpu.itb.stage2_mmu.stage2_tlb.walker.walks            0                       # Table walker walks requested
system.cpu.itb.stage2_mmu.stage2_tlb.walker.requestOrigin_Requested::Data            0                       # Table walker requests started/completed, data/inst
system.cpu.itb.stage2_mmu.stage2_tlb.walker.requestOrigin_Requested::Inst            0                       # Table walker requests started/completed, data/inst
system.cpu.itb.stage2_mmu.stage2_tlb.walker.requestOrigin_Requested::total            0                       # Table walker requests started/completed, data/inst
system.cpu.itb.stage2_mmu.stage2_tlb.walker.requestOrigin_Completed::Data            0                       # Table walker requests started/completed, data/inst
system.cpu.itb.stage2_mmu.stage2_tlb.walker.requestOrigin_Completed::Inst            0                       # Table walker requests started/completed, data/inst
system.cpu.itb.stage2_mmu.stage2_tlb.walker.requestOrigin_Completed::total            0                       # Table walker requests started/completed, data/inst
system.cpu.itb.stage2_mmu.stage2_tlb.walker.requestOrigin::total            0                       # Table walker requests started/completed, data/inst
system.cpu.itb.stage2_mmu.stage2_tlb.walker.power_state.pwrStateResidencyTicks::UNDEFINED     34104000                       # Cumulative time (in ticks) in various power states
system.cpu.itb.walker.walks                         0                       # Table walker walks requested
system.cpu.itb.walker.requestOrigin_Requested::Data            0                       # Table walker requests started/completed, data/inst
system.cpu.itb.walker.requestOrigin_Requested::Inst            0                       # Table walker requests started/completed, data/inst
system.cpu.itb.walker.requestOrigin_Requested::total            0                       # Table walker requests started/completed, data/inst
system.cpu.itb.walker.requestOrigin_Completed::Data            0                       # Table walker requests started/completed, data/inst
system.cpu.itb.walker.requestOrigin_Completed::Inst            0                       # Table walker requests started/completed, data/inst
system.cpu.itb.walker.requestOrigin_Completed::total            0                       # Table walker requests started/completed, data/inst
system.cpu.itb.walker.requestOrigin::total            0                       # Table walker requests started/completed, data/inst
system.cpu.itb.walker.power_state.pwrStateResidencyTicks::UNDEFINED     34104000                       # Cumulative time (in ticks) in various power states
system.cpu.power_state.pwrStateResidencyTicks::ON     34104000                       # Cumulative time (in ticks) in various power states
system.cpu.thread0.numInsts                      9707                       # Number of Instructions committed
system.cpu.thread0.numOps                       11066                       # Number of Ops committed
system.cpu.thread0.numMemRefs                       0                       # Number of Memory References
system.cpu_clk_domain.clock                       500                       # Clock period in ticks
system.cpu_voltage_domain.voltage                   1                       # Voltage in Volts
system.mem_ctrls.avgPriority_.writebacks::samples        67.00                       # Average QoS priority value for accepted requests
system.mem_ctrls.avgPriority_.cpu.inst::samples       397.00                       # Average QoS priority value for accepted requests
system.mem_ctrls.avgPriority_.cpu.data::samples       163.00                       # Average QoS priority value for accepted requests
system.mem_ctrls.priorityMinLatency      0.000000018750                       # per QoS priority minimum request to response latency (s)
system.mem_ctrls.priorityMaxLatency      0.000022400750                       # per QoS priority maximum request to response latency (s)
system.mem_ctrls.numReadWriteTurnArounds            3                       # Number of turnarounds from READ to WRITE
system.mem_ctrls.numWriteReadTurnArounds            3                       # Number of turnarounds from WRITE to READ
system.mem_ctrls.numStayReadState                1188                       # Number of times bus staying in READ state
system.mem_ctrls.numStayWriteState                 46                       # Number of times bus staying in WRITE state
system.mem_ctrls.readReqs                         570                       # Number of read requests accepted
system.mem_ctrls.writeReqs                         67                       # Number of write requests accepted
system.mem_ctrls.readBursts                       570                       # Number of controller read bursts, including those serviced by the write queue
system.mem_ctrls.writeBursts                       67                       # Number of controller write bursts, including those merged in the write queue
system.mem_ctrls.servicedByWrQ                     10                       # Number of controller read bursts serviced by the write queue
system.mem_ctrls.mergedWrBursts                     0                       # Number of controller write bursts merged with an existing one
system.mem_ctrls.neitherReadNorWriteReqs            0                       # Number of requests that are neither read nor write
system.mem_ctrls.avgRdQLen                       1.18                       # Average read queue length when enqueuing
system.mem_ctrls.avgWrQLen                      11.66                       # Average write queue length when enqueuing
system.mem_ctrls.numRdRetry                         0                       # Number of times read queue was full causing retry
system.mem_ctrls.numWrRetry                         0                       # Number of times write queue was full causing retry
system.mem_ctrls.readPktSize::0                     0                       # Read request sizes (log2)
system.mem_ctrls.readPktSize::1                     0                       # Read request sizes (log2)
system.mem_ctrls.readPktSize::2                     0                       # Read request sizes (log2)
system.mem_ctrls.readPktSize::3                     0                       # Read request sizes (log2)
system.mem_ctrls.readPktSize::4                     0                       # Read request sizes (log2)
system.mem_ctrls.readPktSize::5                     0                       # Read request sizes (log2)
system.mem_ctrls.readPktSize::6                   570                       # Read request sizes (log2)
system.mem_ctrls.writePktSize::0                    0                       # Write request sizes (log2)
system.mem_ctrls.writePktSize::1                    0                       # Write request sizes (log2)
system.mem_ctrls.writePktSize::2                    0                       # Write request sizes (log2)
system.mem_ctrls.writePktSize::3                    0                       # Write request sizes (log2)
system.mem_ctrls.writePktSize::4                    0                       # Write request sizes (log2)
system.mem_ctrls.writePktSize::5                    0                       # Write request sizes (log2)
system.mem_ctrls.writePktSize::6                   67                       # Write request sizes (log2)
system.mem_ctrls.rdQLenPdf::0                     471                       # What read queue length does an incoming req see
system.mem_ctrls.rdQLenPdf::1                      82                       # What read queue length does an incoming req see
system.mem_ctrls.rdQLenPdf::2                       6                       # What read queue length does an incoming req see
system.mem_ctrls.rdQLenPdf::3                       1                       # What read queue length does an incoming req see
system.mem_ctrls.rdQLenPdf::4                       0                       # What read queue length does an incoming req see
system.mem_ctrls.rdQLenPdf::5                       0                       # What read queue length does an incoming req see
system.mem_ctrls.rdQLenPdf::6                       0                       # What read queue length does an incoming req see
system.mem_ctrls.rdQLenPdf::7                       0                       # What read queue length does an incoming req see
system.mem_ctrls.rdQLenPdf::8                       0                       # What read queue length does an incoming req see
system.mem_ctrls.rdQLenPdf::9                       0                       # What read queue length does an incoming req see
system.mem_ctrls.rdQLenPdf::10                      0                       # What read queue length does an incoming req see
system.mem_ctrls.rdQLenPdf::11                      0                       # What read queue length does an incoming req see
system.mem_ctrls.rdQLenPdf::12                      0                       # What read queue length does an incoming req see
system.mem_ctrls.rdQLenPdf::13                      0                       # What read queue length does an incoming req see
system.mem_ctrls.rdQLenPdf::14                      0                       # What read queue length does an incoming req see
system.mem_ctrls.rdQLenPdf::15                      0                       # What read queue length does an incoming req see
system.mem_ctrls.rdQLenPdf::16                      0                       # What read queue length does an incoming req see
system.mem_ctrls.rdQLenPdf::17                      0                       # What read queue length does an incoming req see
system.mem_ctrls.rdQLenPdf::18                      0                       # What read queue length does an incoming req see
system.mem_ctrls.rdQLenPdf::19                      0                       # What read queue length does an incoming req see
system.mem_ctrls.rdQLenPdf::20                      0                       # What read queue length does an incoming req see
system.mem_ctrls.rdQLenPdf::21                      0                       # What read queue length does an incoming req see
system.mem_ctrls.rdQLenPdf::22                      0                       # What read queue length does an incoming req see
system.mem_ctrls.rdQLenPdf::23                      0                       # What read queue length does an incoming req see
system.mem_ctrls.rdQLenPdf::24                      0                       # What read queue length does an incoming req see
system.mem_ctrls.rdQLenPdf::25                      0                       # What read queue length does an incoming req see
system.mem_ctrls.rdQLenPdf::26                      0                       # What read queue length does an incoming req see
system.mem_ctrls.rdQLenPdf::27                      0                       # What read queue length does an incoming req see
system.mem_ctrls.rdQLenPdf::28                      0                       # What read queue length does an incoming req see
system.mem_ctrls.rdQLenPdf::29                      0                       # What read queue length does an incoming req see
system.mem_ctrls.rdQLenPdf::30                      0                       # What read queue length does an incoming req see
system.mem_ctrls.rdQLenPdf::31                      0                       # What read queue length does an incoming req see
system.mem_ctrls.wrQLenPdf::0                       1                       # What write queue length does an incoming req see
system.mem_ctrls.wrQLenPdf::1                       1                       # What write queue length does an incoming req see
system.mem_ctrls.wrQLenPdf::2                       1                       # What write queue length does an incoming req see
system.mem_ctrls.wrQLenPdf::3                       1                       # What write queue length does an incoming req see
system.mem_ctrls.wrQLenPdf::4                       1                       # What write queue length does an incoming req see
system.mem_ctrls.wrQLenPdf::5                       1                       # What write queue length does an incoming req see
system.mem_ctrls.wrQLenPdf::6                       1                       # What write queue length does an incoming req see
system.mem_ctrls.wrQLenPdf::7                       1                       # What write queue length does an incoming req see
system.mem_ctrls.wrQLenPdf::8                       1                       # What write queue length does an incoming req see
system.mem_ctrls.wrQLenPdf::9                       1                       # What write queue length does an incoming req see
system.mem_ctrls.wrQLenPdf::10                      1                       # What write queue length does an incoming req see
system.mem_ctrls.wrQLenPdf::11                      1                       # What write queue length does an incoming req see
system.mem_ctrls.wrQLenPdf::12                      1                       # What write queue length does an incoming req see
system.mem_ctrls.wrQLenPdf::13                      1                       # What write queue length does an incoming req see
system.mem_ctrls.wrQLenPdf::14                      1                       # What write queue length does an incoming req see
system.mem_ctrls.wrQLenPdf::15                      1                       # What write queue length does an incoming req see
system.mem_ctrls.wrQLenPdf::16                      2                       # What write queue length does an incoming req see
system.mem_ctrls.wrQLenPdf::17                      4                       # What write queue length does an incoming req see
system.mem_ctrls.wrQLenPdf::18                      3                       # What write queue length does an incoming req see
system.mem_ctrls.wrQLenPdf::19                      3                       # What write queue length does an incoming req see
system.mem_ctrls.wrQLenPdf::20                      3                       # What write queue length does an incoming req see
system.mem_ctrls.wrQLenPdf::21                      3                       # What write queue length does an incoming req see
system.mem_ctrls.wrQLenPdf::22                      3                       # What write queue length does an incoming req see
system.mem_ctrls.wrQLenPdf::23                      3                       # What write queue length does an incoming req see
system.mem_ctrls.wrQLenPdf::24                      3                       # What write queue length does an incoming req see
system.mem_ctrls.wrQLenPdf::25                      3                       # What write queue length does an incoming req see
system.mem_ctrls.wrQLenPdf::26                      3                       # What write queue length does an incoming req see
system.mem_ctrls.wrQLenPdf::27                      3                       # What write queue length does an incoming req see
system.mem_ctrls.wrQLenPdf::28                      3                       # What write queue length does an incoming req see
system.mem_ctrls.wrQLenPdf::29                      3                       # What write queue length does an incoming req see
system.mem_ctrls.wrQLenPdf::30                      3                       # What write queue length does an incoming req see
system.mem_ctrls.wrQLenPdf::31                      3                       # What write queue length does an incoming req see
system.mem_ctrls.wrQLenPdf::32                      3                       # What write queue length does an incoming req see
system.mem_ctrls.wrQLenPdf::33                      0                       # What write queue length does an incoming req see
system.mem_ctrls.wrQLenPdf::34                      0                       # What write queue length does an incoming req see
system.mem_ctrls.wrQLenPdf::35                      0                       # What write queue length does an incoming req see
system.mem_ctrls.wrQLenPdf::36                      0                       # What write queue length does an incoming req see
system.mem_ctrls.wrQLenPdf::37                      0                       # What write queue length does an incoming req see
system.mem_ctrls.wrQLenPdf::38                      0                       # What write queue length does an incoming req see
system.mem_ctrls.wrQLenPdf::39                      0                       # What write queue length does an incoming req see
system.mem_ctrls.wrQLenPdf::40                      0                       # What write queue length does an incoming req see
system.mem_ctrls.wrQLenPdf::41                      0                       # What write queue length does an incoming req see
system.mem_ctrls.wrQLenPdf::42                      0                       # What write queue length does an incoming req see
system.mem_ctrls.wrQLenPdf::43                      0                       # What write queue length does an incoming req see
system.mem_ctrls.wrQLenPdf::44                      0                       # What write queue length does an incoming req see
system.mem_ctrls.wrQLenPdf::45                      0                       # What write queue length does an incoming req see
system.mem_ctrls.wrQLenPdf::46                      0                       # What write queue length does an incoming req see
system.mem_ctrls.wrQLenPdf::47                      0                       # What write queue length does an incoming req see
system.mem_ctrls.wrQLenPdf::48                      0                       # What write queue length does an incoming req see
system.mem_ctrls.wrQLenPdf::49                      0                       # What write queue length does an incoming req see
system.mem_ctrls.wrQLenPdf::50                      0                       # What write queue length does an incoming req see
system.mem_ctrls.wrQLenPdf::51                      0                       # What write queue length does an incoming req see
system.mem_ctrls.wrQLenPdf::52                      0                       # What write queue length does an incoming req see
system.mem_ctrls.wrQLenPdf::53                      0                       # What write queue length does an incoming req see
system.mem_ctrls.wrQLenPdf::54                      0                       # What write queue length does an incoming req see
system.mem_ctrls.wrQLenPdf::55                      0                       # What write queue length does an incoming req see
system.mem_ctrls.wrQLenPdf::56                      0                       # What write queue length does an incoming req see
system.mem_ctrls.wrQLenPdf::57                      0                       # What write queue length does an incoming req see
system.mem_ctrls.wrQLenPdf::58                      0                       # What write queue length does an incoming req see
system.mem_ctrls.wrQLenPdf::59                      0                       # What write queue length does an incoming req see
system.mem_ctrls.wrQLenPdf::60                      0                       # What write queue length does an incoming req see
system.mem_ctrls.wrQLenPdf::61                      0                       # What write queue length does an incoming req see
system.mem_ctrls.wrQLenPdf::62                      0                       # What write queue length does an incoming req see
system.mem_ctrls.wrQLenPdf::63                      0                       # What write queue length does an incoming req see
system.mem_ctrls.rdPerTurnAround::samples            3                       # Reads before turning the bus around for writes
system.mem_ctrls.rdPerTurnAround::mean     171.333333                       # Reads before turning the bus around for writes
system.mem_ctrls.rdPerTurnAround::gmean     92.452325                       # Reads before turning the bus around for writes
system.mem_ctrls.rdPerTurnAround::stdev    220.731360                       # Reads before turning the bus around for writes
system.mem_ctrls.rdPerTurnAround::32-47             1     33.33%     33.33% # Reads before turning the bus around for writes
system.mem_ctrls.rdPerTurnAround::48-63             1     33.33%     66.67% # Reads before turning the bus around for writes
system.mem_ctrls.rdPerTurnAround::416-431            1     33.33%    100.00% # Reads before turning the bus around for writes
system.mem_ctrls.rdPerTurnAround::total             3                       # Reads before turning the bus around for writes
system.mem_ctrls.wrPerTurnAround::samples            3                       # Writes before turning the bus around for reads
system.mem_ctrls.wrPerTurnAround::mean      16.333333                       # Writes before turning the bus around for reads
system.mem_ctrls.wrPerTurnAround::gmean     16.326620                       # Writes before turning the bus around for reads
system.mem_ctrls.wrPerTurnAround::stdev      0.577350                       # Writes before turning the bus around for reads
system.mem_ctrls.wrPerTurnAround::16                2     66.67%     66.67% # Writes before turning the bus around for reads
system.mem_ctrls.wrPerTurnAround::17                1     33.33%    100.00% # Writes before turning the bus around for reads
system.mem_ctrls.wrPerTurnAround::total             3                       # Writes before turning the bus around for reads
system.mem_ctrls.bytesReadWrQ                     640                       # Total number of bytes read from write queue
system.mem_ctrls.bytesReadSys                   36480                       # Total read bytes from the system interface side
system.mem_ctrls.bytesWrittenSys                 4288                       # Total written bytes from the system interface side
system.mem_ctrls.avgRdBWSys                   1069.67                       # Average system read bandwidth in MiByte/s
system.mem_ctrls.avgWrBWSys                    125.73                       # Average system write bandwidth in MiByte/s
system.mem_ctrls.totGap                      34045500                       # Total gap between requests
system.mem_ctrls.avgGap                      53446.62                       # Average gap between requests
system.mem_ctrls.requestorReadBytes::.cpu.inst        25408                       # Per-requestor bytes read from memory
system.mem_ctrls.requestorReadBytes::.cpu.data        10432                       # Per-requestor bytes read from memory
system.mem_ctrls.requestorWriteBytes::.writebacks         3136                       # Per-requestor bytes write to memory
system.mem_ctrls.requestorReadRate::.cpu.inst 745015247.478301763535                       # Per-requestor bytes read from memory rate (Bytes/sec)
system.mem_ctrls.requestorReadRate::.cpu.data 305887872.390335440636                       # Per-requestor bytes read from memory rate (Bytes/sec)
system.mem_ctrls.requestorWriteRate::.writebacks 91954022.988505750895                       # Per-requestor bytes write to memory rate (Bytes/sec)
system.mem_ctrls.requestorReadAccesses::.cpu.inst          406                       # Per-requestor read serviced memory accesses
system.mem_ctrls.requestorReadAccesses::.cpu.data          164                       # Per-requestor read serviced memory accesses
system.mem_ctrls.requestorWriteAccesses::.writebacks           67                       # Per-requestor write serviced memory accesses
system.mem_ctrls.requestorReadTotalLat::.cpu.inst     10008750                       # Per-requestor read total memory access latency
system.mem_ctrls.requestorReadTotalLat::.cpu.data      4810000                       # Per-requestor read total memory access latency
system.mem_ctrls.requestorWriteTotalLat::.writebacks    242087750                       # Per-requestor write total memory access latency
system.mem_ctrls.requestorReadAvgLat::.cpu.inst     24652.09                       # Per-requestor read average memory access latency
system.mem_ctrls.requestorReadAvgLat::.cpu.data     29329.27                       # Per-requestor read average memory access latency
system.mem_ctrls.requestorWriteAvgLat::.writebacks   3613250.00                       # Per-requestor write average memory access latency
system.mem_ctrls.dram.bytes_read::.cpu.inst        25984                       # Number of bytes read from this memory
system.mem_ctrls.dram.bytes_read::.cpu.data        10496                       # Number of bytes read from this memory
system.mem_ctrls.dram.bytes_read::total         36480                       # Number of bytes read from this memory
system.mem_ctrls.dram.bytes_inst_read::.cpu.inst        25984                       # Number of instructions bytes read from this memory
system.mem_ctrls.dram.bytes_inst_read::total        25984                       # Number of instructions bytes read from this memory
system.mem_ctrls.dram.num_reads::.cpu.inst          406                       # Number of read requests responded to by this memory
system.mem_ctrls.dram.num_reads::.cpu.data          164                       # Number of read requests responded to by this memory
system.mem_ctrls.dram.num_reads::total            570                       # Number of read requests responded to by this memory
system.mem_ctrls.dram.bw_read::.cpu.inst    761904762                       # Total read bandwidth from this memory (bytes/s)
system.mem_ctrls.dram.bw_read::.cpu.data    307764485                       # Total read bandwidth from this memory (bytes/s)
system.mem_ctrls.dram.bw_read::total       1069669247                       # Total read bandwidth from this memory (bytes/s)
system.mem_ctrls.dram.bw_inst_read::.cpu.inst    761904762                       # Instruction read bandwidth from this memory (bytes/s)
system.mem_ctrls.dram.bw_inst_read::total    761904762                       # Instruction read bandwidth from this memory (bytes/s)
system.mem_ctrls.dram.bw_total::.cpu.inst    761904762                       # Total bandwidth to/from this memory (bytes/s)
system.mem_ctrls.dram.bw_total::.cpu.data    307764485                       # Total bandwidth to/from this memory (bytes/s)
system.mem_ctrls.dram.bw_total::total      1069669247                       # Total bandwidth to/from this memory (bytes/s)
system.mem_ctrls.dram.readBursts                  560                       # Number of DRAM read bursts
system.mem_ctrls.dram.writeBursts                  49                       # Number of DRAM write bursts
system.mem_ctrls.dram.perBankRdBursts::0           38                       # Per bank write bursts
system.mem_ctrls.dram.perBankRdBursts::1            4                       # Per bank write bursts
system.mem_ctrls.dram.perBankRdBursts::2           19                       # Per bank write bursts
system.mem_ctrls.dram.perBankRdBursts::3           41                       # Per bank write bursts
system.mem_ctrls.dram.perBankRdBursts::4           40                       # Per bank write bursts
system.mem_ctrls.dram.perBankRdBursts::5           58                       # Per bank write bursts
system.mem_ctrls.dram.perBankRdBursts::6           35                       # Per bank write bursts
system.mem_ctrls.dram.perBankRdBursts::7          106                       # Per bank write bursts
system.mem_ctrls.dram.perBankRdBursts::8           59                       # Per bank write bursts
system.mem_ctrls.dram.perBankRdBursts::9           76                       # Per bank write bursts
system.mem_ctrls.dram.perBankRdBursts::10            5                       # Per bank write bursts
system.mem_ctrls.dram.perBankRdBursts::11           11                       # Per bank write bursts
system.mem_ctrls.dram.perBankRdBursts::12            4                       # Per bank write bursts
system.mem_ctrls.dram.perBankRdBursts::13           17                       # Per bank write bursts
system.mem_ctrls.dram.perBankRdBursts::14           12                       # Per bank write bursts
system.mem_ctrls.dram.perBankRdBursts::15           35                       # Per bank write bursts
system.mem_ctrls.dram.perBankWrBursts::0            6                       # Per bank write bursts
system.mem_ctrls.dram.perBankWrBursts::1            0                       # Per bank write bursts
system.mem_ctrls.dram.perBankWrBursts::2            3                       # Per bank write bursts
system.mem_ctrls.dram.perBankWrBursts::3            0                       # Per bank write bursts
system.mem_ctrls.dram.perBankWrBursts::4            0                       # Per bank write bursts
system.mem_ctrls.dram.perBankWrBursts::5            9                       # Per bank write bursts
system.mem_ctrls.dram.perBankWrBursts::6            9                       # Per bank write bursts
system.mem_ctrls.dram.perBankWrBursts::7           10                       # Per bank write bursts
system.mem_ctrls.dram.perBankWrBursts::8            3                       # Per bank write bursts
system.mem_ctrls.dram.perBankWrBursts::9            8                       # Per bank write bursts
system.mem_ctrls.dram.perBankWrBursts::10            0                       # Per bank write bursts
system.mem_ctrls.dram.perBankWrBursts::11            1                       # Per bank write bursts
system.mem_ctrls.dram.perBankWrBursts::12            0                       # Per bank write bursts
system.mem_ctrls.dram.perBankWrBursts::13            0                       # Per bank write bursts
system.mem_ctrls.dram.perBankWrBursts::14            0                       # Per bank write bursts
system.mem_ctrls.dram.perBankWrBursts::15            0                       # Per bank write bursts
system.mem_ctrls.dram.totQLat                 4318750                       # Total ticks spent queuing
system.mem_ctrls.dram.totBusLat               2800000                       # Total ticks spent in databus transfers
system.mem_ctrls.dram.totMemAccLat           14818750                       # Total ticks spent from burst creation until serviced by the DRAM
system.mem_ctrls.dram.avgQLat                 7712.05                       # Average queueing delay per DRAM burst
system.mem_ctrls.dram.avgBusLat               5000.00                       # Average bus latency per DRAM burst
system.mem_ctrls.dram.avgMemAccLat           26462.05                       # Average memory access latency per DRAM burst
system.mem_ctrls.dram.readRowHits                 454                       # Number of row buffer hits during reads
system.mem_ctrls.dram.writeRowHits                 40                       # Number of row buffer hits during writes
system.mem_ctrls.dram.readRowHitRate            81.07                       # Row buffer hit rate for reads
system.mem_ctrls.dram.writeRowHitRate           81.63                       # Row buffer hit rate for writes
system.mem_ctrls.dram.bytesPerActivate::samples          110                       # Bytes accessed per row activation
system.mem_ctrls.dram.bytesPerActivate::mean   337.454545                       # Bytes accessed per row activation
system.mem_ctrls.dram.bytesPerActivate::gmean   231.648830                       # Bytes accessed per row activation
system.mem_ctrls.dram.bytesPerActivate::stdev   300.675559                       # Bytes accessed per row activation
system.mem_ctrls.dram.bytesPerActivate::0-127           21     19.09%     19.09% # Bytes accessed per row activation
system.mem_ctrls.dram.bytesPerActivate::128-255           33     30.00%     49.09% # Bytes accessed per row activation
system.mem_ctrls.dram.bytesPerActivate::256-383           23     20.91%     70.00% # Bytes accessed per row activation
system.mem_ctrls.dram.bytesPerActivate::384-511            8      7.27%     77.27% # Bytes accessed per row activation
system.mem_ctrls.dram.bytesPerActivate::512-639            7      6.36%     83.64% # Bytes accessed per row activation
system.mem_ctrls.dram.bytesPerActivate::640-767            4      3.64%     87.27% # Bytes accessed per row activation
system.mem_ctrls.dram.bytesPerActivate::896-1023            3      2.73%     90.00% # Bytes accessed per row activation
system.mem_ctrls.dram.bytesPerActivate::1024-1151           11     10.00%    100.00% # Bytes accessed per row activation
system.mem_ctrls.dram.bytesPerActivate::total          110                       # Bytes accessed per row activation
system.mem_ctrls.dram.bytesRead                 35840                       # Total number of bytes read from DRAM
system.mem_ctrls.dram.bytesWritten               3136                       # Total number of bytes written to DRAM
system.mem_ctrls.dram.avgRdBW             1050.903120                       # Average DRAM read bandwidth in MiBytes/s
system.mem_ctrls.dram.avgWrBW               91.954023                       # Average DRAM write bandwidth in MiBytes/s
system.mem_ctrls.dram.peakBW                 12800.00                       # Theoretical peak bandwidth in MiByte/s
system.mem_ctrls.dram.busUtil                    8.93                       # Data bus utilization in percentage
system.mem_ctrls.dram.busUtilRead                8.21                       # Data bus utilization in percentage for reads
system.mem_ctrls.dram.busUtilWrite               0.72                       # Data bus utilization in percentage for writes
system.mem_ctrls.dram.pageHitRate               81.12                       # Row buffer hit rate, read and write combined
system.mem_ctrls.dram.power_state.pwrStateResidencyTicks::UNDEFINED     34104000                       # Cumulative time (in ticks) in various power states
system.mem_ctrls.dram.rank0.actEnergy          464100                       # Energy for activate commands per rank (pJ)
system.mem_ctrls.dram.rank0.preEnergy          231495                       # Energy for precharge commands per rank (pJ)
system.mem_ctrls.dram.rank0.readEnergy        2434740                       # Energy for read commands per rank (pJ)
system.mem_ctrls.dram.rank0.writeEnergy        193140                       # Energy for write commands per rank (pJ)
system.mem_ctrls.dram.rank0.refreshEnergy 2458560.000000                       # Energy for refresh commands per rank (pJ)
system.mem_ctrls.dram.rank0.actBackEnergy     15431040                       # Energy for active background per rank (pJ)
system.mem_ctrls.dram.rank0.preBackEnergy       101760                       # Energy for precharge background per rank (pJ)
system.mem_ctrls.dram.rank0.actPowerDownEnergy            0                       # Energy for active power-down per rank (pJ)
system.mem_ctrls.dram.rank0.prePowerDownEnergy            0                       # Energy for precharge power-down per rank (pJ)
system.mem_ctrls.dram.rank0.selfRefreshEnergy            0                       # Energy for self refresh per rank (pJ)
system.mem_ctrls.dram.rank0.totalEnergy      21314835                       # Total energy per rank (pJ)
system.mem_ctrls.dram.rank0.averagePower   624.995162                       # Core power per rank (mW)
system.mem_ctrls.dram.rank0.totalIdleTime            0                       # Total Idle time Per DRAM Rank
system.mem_ctrls.dram.rank0.pwrStateTime::IDLE       126250                       # Time in different power states
system.mem_ctrls.dram.rank0.pwrStateTime::REF      1040000                       # Time in different power states
system.mem_ctrls.dram.rank0.pwrStateTime::SREF            0                       # Time in different power states
system.mem_ctrls.dram.rank0.pwrStateTime::PRE_PDN            0                       # Time in different power states
system.mem_ctrls.dram.rank0.pwrStateTime::ACT     32937750                       # Time in different power states
system.mem_ctrls.dram.rank0.pwrStateTime::ACT_PDN            0                       # Time in different power states
system.mem_ctrls.dram.rank1.actEnergy          357000                       # Energy for activate commands per rank (pJ)
system.mem_ctrls.dram.rank1.preEnergy          185955                       # Energy for precharge commands per rank (pJ)
system.mem_ctrls.dram.rank1.readEnergy        1563660                       # Energy for read commands per rank (pJ)
system.mem_ctrls.dram.rank1.writeEnergy         62640                       # Energy for write commands per rank (pJ)
system.mem_ctrls.dram.rank1.refreshEnergy 2458560.000000                       # Energy for refresh commands per rank (pJ)
system.mem_ctrls.dram.rank1.actBackEnergy     14617080                       # Energy for active background per rank (pJ)
system.mem_ctrls.dram.rank1.preBackEnergy       787200                       # Energy for precharge background per rank (pJ)
system.mem_ctrls.dram.rank1.actPowerDownEnergy            0                       # Energy for active power-down per rank (pJ)
system.mem_ctrls.dram.rank1.prePowerDownEnergy            0                       # Energy for precharge power-down per rank (pJ)
system.mem_ctrls.dram.rank1.selfRefreshEnergy            0                       # Energy for self refresh per rank (pJ)
system.mem_ctrls.dram.rank1.totalEnergy      20032095                       # Total energy per rank (pJ)
system.mem_ctrls.dram.rank1.averagePower   587.382565                       # Core power per rank (mW)
system.mem_ctrls.dram.rank1.totalIdleTime            0                       # Total Idle time Per DRAM Rank
system.mem_ctrls.dram.rank1.pwrStateTime::IDLE      1938250                       # Time in different power states
system.mem_ctrls.dram.rank1.pwrStateTime::REF      1040000                       # Time in different power states
system.mem_ctrls.dram.rank1.pwrStateTime::SREF            0                       # Time in different power states
system.mem_ctrls.dram.rank1.pwrStateTime::PRE_PDN            0                       # Time in different power states
system.mem_ctrls.dram.rank1.pwrStateTime::ACT     31125750                       # Time in different power states
system.mem_ctrls.dram.rank1.pwrStateTime::ACT_PDN            0                       # Time in different power states
system.mem_ctrls.power_state.pwrStateResidencyTicks::UNDEFINED     34104000                       # Cumulative time (in ticks) in various power states
system.membus.trans_dist::ReadResp                500                       # Transaction distribution
system.membus.trans_dist::WritebackClean           69                       # Transaction distribution
system.membus.trans_dist::ReadExReq                70                       # Transaction distribution
system.membus.trans_dist::ReadExResp               70                       # Transaction distribution
system.membus.trans_dist::ReadCleanReq            406                       # Transaction distribution
system.membus.trans_dist::ReadSharedReq            94                       # Transaction distribution
system.membus.pkt_count_system.cpu.icache.mem_side_port::system.mem_ctrls.port          881                       # Packet count per connected requestor and responder (bytes)
system.membus.pkt_count_system.cpu.dcache.mem_side_port::system.mem_ctrls.port          328                       # Packet count per connected requestor and responder (bytes)
system.membus.pkt_count::total                   1209                       # Packet count per connected requestor and responder (bytes)
system.membus.pkt_size_system.cpu.icache.mem_side_port::system.mem_ctrls.port        30400                       # Cumulative packet size per connected requestor and responder (bytes)
system.membus.pkt_size_system.cpu.dcache.mem_side_port::system.mem_ctrls.port        10496                       # Cumulative packet size per connected requestor and responder (bytes)
system.membus.pkt_size::total                   40896                       # Cumulative packet size per connected requestor and responder (bytes)
system.membus.snoops                                0                       # Total snoops (count)
system.membus.snoopTraffic                          0                       # Total snoop traffic (bytes)
system.membus.snoop_fanout::samples               570                       # Request fanout histogram
system.membus.snoop_fanout::mean             0.035088                       # Request fanout histogram
system.membus.snoop_fanout::stdev            0.184163                       # Request fanout histogram
system.membus.snoop_fanout::underflows              0      0.00%      0.00% # Request fanout histogram
system.membus.snoop_fanout::0                     550     96.49%     96.49% # Request fanout histogram
system.membus.snoop_fanout::1                      20      3.51%    100.00% # Request fanout histogram
system.membus.snoop_fanout::2                       0      0.00%    100.00% # Request fanout histogram
system.membus.snoop_fanout::overflows               0      0.00%    100.00% # Request fanout histogram
system.membus.snoop_fanout::min_value               0                       # Request fanout histogram
system.membus.snoop_fanout::max_value               1                       # Request fanout histogram
system.membus.snoop_fanout::total                 570                       # Request fanout histogram
system.membus.power_state.pwrStateResidencyTicks::UNDEFINED     34104000                       # Cumulative time (in ticks) in various power states
system.membus.reqLayer0.occupancy             1005000                       # Layer occupancy (ticks)
system.membus.reqLayer0.utilization               2.9                       # Layer utilization (%)
system.membus.respLayer1.occupancy            2152250                       # Layer occupancy (ticks)
system.membus.respLayer1.utilization              6.3                       # Layer utilization (%)
system.membus.respLayer2.occupancy             879750                       # Layer occupancy (ticks)
system.membus.respLayer2.utilization              2.6                       # Layer utilization (%)
system.voltage_domain.voltage                       1                       # Voltage in Volts

---------- End Simulation Statistics   ----------
